V1 N001 0 AC (1 0)
C1 N002 N001 5u
R1 N002 0 1k
.ac dec 10 10 10000
.end