V1 N001 0 AC (1 0)
C1 N002 N001 1u
R1 N002 0 5k
.ac dec 10 10 10000
.end